Version 4
SHEET 1 3028 4548
WIRE -192 1712 -816 1712
WIRE 208 1712 96 1712
WIRE 352 1712 288 1712
WIRE 544 1712 352 1712
WIRE 640 1712 544 1712
WIRE 848 1712 640 1712
WIRE 544 1728 544 1712
WIRE 352 1744 352 1712
WIRE -416 1792 -528 1792
WIRE -240 1792 -416 1792
WIRE -192 1792 -240 1792
WIRE 160 1792 96 1792
WIRE 176 1792 160 1792
WIRE 848 1792 848 1712
WIRE 1072 1792 1072 1712
WIRE -816 1824 -816 1712
WIRE 544 1824 544 1808
WIRE 640 1824 544 1824
WIRE 688 1824 640 1824
WIRE -416 1840 -416 1792
WIRE -240 1856 -304 1856
WIRE -192 1856 -240 1856
WIRE 160 1856 96 1856
WIRE 176 1856 160 1856
WIRE 352 1856 352 1808
WIRE 688 1856 688 1824
WIRE -528 1888 -528 1792
WIRE 544 1888 544 1824
WIRE -416 1936 -416 1904
WIRE -816 1968 -816 1904
WIRE -48 1968 -48 1904
WIRE 352 1968 352 1936
WIRE 688 1968 688 1936
WIRE 848 1968 848 1872
WIRE 1072 1968 1072 1872
WIRE -528 2064 -528 1952
WIRE -416 2064 -416 2016
WIRE -416 2064 -528 2064
WIRE -304 2064 -304 1856
WIRE -304 2064 -416 2064
WIRE 544 2064 544 1968
WIRE 544 2064 -304 2064
WIRE 688 2064 688 2032
WIRE 688 2064 544 2064
WIRE -304 2128 -304 2064
WIRE -304 2256 -304 2208
FLAG -816 1968 0
FLAG 352 1968 0
FLAG 848 1968 0
FLAG 1072 1968 0
FLAG -304 2256 0
FLAG -48 1968 0
FLAG 160 1792 D_avg
FLAG 160 1856 D2_avg
FLAG 640 1712 B
FLAG 640 1824 A
FLAG -240 1792 COMP
FLAG -240 1856 FB
SYMBOL cap 336 1744 R0
SYMATTR InstName C4
SYMATTR Value 100µ
SYMBOL res 336 1840 R0
SYMATTR InstName R7
SYMATTR Value 70m
SYMBOL res 832 1776 R0
SYMATTR InstName R8
SYMATTR Value {Rload}
SYMBOL res 1056 1776 R0
SYMATTR InstName R15
SYMATTR Value 10
SYMBOL res 528 1872 R0
SYMATTR InstName R19
SYMATTR Value 26.7k
SYMBOL res -320 2112 R0
SYMATTR InstName R20
SYMATTR Value 16.2k
SYMBOL res 672 1840 R0
SYMATTR InstName R22
SYMATTR Value 1.1k
SYMBOL cap 672 1968 R0
SYMATTR InstName C8
SYMATTR Value 12n
SYMBOL ind 192 1728 R270
WINDOW 0 32 56 VTop 2
WINDOW 3 5 56 VBottom 2
SYMATTR InstName L2
SYMATTR Value {L}
SYMATTR SpiceLine Rser=20m
SYMBOL AVG_PWM_VM -48 1776 R0
SYMATTR InstName X2
SYMATTR SpiceLine L=75u Fsw=100k Tsw=1/Fsw lim=10m Kpwm=0.5 Ref=1.25
SYMBOL cap -432 1904 M180
WINDOW 0 24 56 Left 2
WINDOW 3 24 8 Left 2
SYMATTR InstName C5
SYMATTR Value 6.8n
SYMBOL res -432 2032 M180
WINDOW 0 36 76 Left 2
WINDOW 3 36 40 Left 2
SYMATTR InstName R5
SYMATTR Value 10k
SYMBOL cap -544 1952 M180
WINDOW 0 24 56 Left 2
WINDOW 3 24 8 Left 2
SYMATTR InstName C10
SYMATTR Value 33p
SYMBOL voltage -816 1808 R0
WINDOW 123 0 0 Left 0
WINDOW 39 0 0 Left 0
SYMATTR InstName V2
SYMATTR Value 12
SYMBOL voltage 544 1712 M0
WINDOW 123 24 124 Left 2
WINDOW 39 0 0 Left 0
SYMATTR Value2 AC 1
SYMATTR InstName V1
SYMATTR Value ""
TEXT -832 2480 Left 2 !.model SW SW(Ron=1u Roff=10Meg Vt={Vcc_comp/2} Vh=-.001)
TEXT -832 2512 Left 2 !.param L=75u Fsw=100k Tsw=1/Fsw lim=10m kpwm=0.5 Vcc_comp=1/Kpwm ref=1.25
TEXT -832 2544 Left 2 !.param Rload=100
TEXT -832 2448 Left 2 !.model clamp D Ron=1m
TEXT -824 2584 Left 2 !.ac dec 100 10 1Meg
