Version 4
SHEET 1 3028 4548
WIRE 32 608 -816 608
WIRE -816 688 -816 608
WIRE 32 752 32 608
WIRE -80 768 -160 768
WIRE -16 768 -80 768
WIRE -16 816 -48 816
WIRE -816 832 -816 768
WIRE -48 832 -48 816
WIRE 32 880 32 832
WIRE 208 880 32 880
WIRE 352 880 288 880
WIRE 544 880 352 880
WIRE 624 880 544 880
WIRE 848 880 624 880
WIRE 1072 880 848 880
WIRE 1072 896 1072 880
WIRE 352 912 352 880
WIRE -816 960 -928 960
WIRE -592 960 -816 960
WIRE -160 960 -160 768
WIRE -160 960 -304 960
WIRE 848 960 848 880
WIRE 32 976 32 880
WIRE 544 976 544 880
WIRE 688 976 544 976
WIRE 1072 992 1072 976
WIRE -816 1008 -816 960
WIRE 1200 1008 1120 1008
WIRE 1232 1008 1200 1008
WIRE -592 1024 -704 1024
WIRE 352 1024 352 976
WIRE 688 1024 688 976
WIRE 1232 1024 1232 1008
WIRE -928 1056 -928 960
WIRE 544 1056 544 976
WIRE 1136 1056 1120 1056
WIRE 1072 1088 1072 1072
WIRE 1136 1088 1136 1056
WIRE 1136 1088 1072 1088
WIRE -816 1104 -816 1072
WIRE 32 1136 32 1040
WIRE 352 1136 352 1104
WIRE 688 1136 688 1104
WIRE 848 1136 848 1040
WIRE 1072 1136 1072 1088
WIRE 1232 1136 1232 1104
WIRE -928 1232 -928 1120
WIRE -816 1232 -816 1184
WIRE -816 1232 -928 1232
WIRE -704 1232 -704 1024
WIRE -704 1232 -816 1232
WIRE 544 1232 544 1136
WIRE 544 1232 -704 1232
WIRE 688 1232 688 1200
WIRE 688 1232 544 1232
WIRE -704 1296 -704 1232
WIRE -704 1424 -704 1376
WIRE -192 1712 -816 1712
WIRE 208 1712 96 1712
WIRE 352 1712 288 1712
WIRE 544 1712 352 1712
WIRE 624 1712 544 1712
WIRE 848 1712 624 1712
WIRE 1072 1712 848 1712
WIRE 1072 1728 1072 1712
WIRE 352 1744 352 1712
WIRE -416 1792 -528 1792
WIRE -192 1792 -416 1792
WIRE 160 1792 96 1792
WIRE 176 1792 160 1792
WIRE 848 1792 848 1712
WIRE 544 1808 544 1712
WIRE 688 1808 544 1808
WIRE -816 1824 -816 1712
WIRE 1072 1824 1072 1808
WIRE -416 1840 -416 1792
WIRE 1200 1840 1120 1840
WIRE 1232 1840 1200 1840
WIRE -192 1856 -304 1856
WIRE 160 1856 96 1856
WIRE 176 1856 160 1856
WIRE 352 1856 352 1808
WIRE 688 1856 688 1808
WIRE 1232 1856 1232 1840
WIRE -528 1888 -528 1792
WIRE 544 1888 544 1808
WIRE 1136 1888 1120 1888
WIRE 1072 1920 1072 1904
WIRE 1136 1920 1136 1888
WIRE 1136 1920 1072 1920
WIRE -416 1936 -416 1904
WIRE -816 1968 -816 1904
WIRE -48 1968 -48 1904
WIRE 352 1968 352 1936
WIRE 688 1968 688 1936
WIRE 848 1968 848 1872
WIRE 1072 1968 1072 1920
WIRE 1232 1968 1232 1936
WIRE -528 2064 -528 1952
WIRE -416 2064 -416 2016
WIRE -416 2064 -528 2064
WIRE -304 2064 -304 1856
WIRE -304 2064 -416 2064
WIRE 544 2064 544 1968
WIRE 544 2064 -304 2064
WIRE 688 2064 688 2032
WIRE 688 2064 544 2064
WIRE -304 2128 -304 2064
WIRE -304 2256 -304 2208
FLAG 32 1136 0
FLAG -816 832 0
FLAG -80 768 D_sw
FLAG -48 832 0
FLAG -816 1968 0
FLAG 352 1968 0
FLAG 848 1968 0
FLAG 624 1712 Vout_avg
FLAG 1072 1968 0
FLAG 1232 1968 0
FLAG -304 2256 0
FLAG -48 1968 0
FLAG 352 1136 0
FLAG 848 1136 0
FLAG 624 880 Vout_sw
FLAG 1072 1136 0
FLAG 1232 1136 0
FLAG -704 1424 0
FLAG 160 1792 D_avg
FLAG 160 1856 D2_avg
FLAG 1200 1840 step_avg
FLAG 1200 1008 step_sw
SYMBOL sw 32 848 M180
SYMATTR InstName S1
SYMBOL diode 48 1040 R180
WINDOW 0 24 64 Left 2
WINDOW 3 24 0 Invisible 2
SYMATTR InstName D1
SYMATTR Value clamp
SYMBOL cap 336 1744 R0
SYMATTR InstName C4
SYMATTR Value 100µ
SYMBOL res 336 1840 R0
SYMATTR InstName R7
SYMATTR Value 70m
SYMBOL res 832 1776 R0
SYMATTR InstName R8
SYMATTR Value {Rload}
SYMBOL res 1056 1712 R0
SYMATTR InstName R15
SYMATTR Value 10
SYMBOL sw 1072 1920 R180
SYMATTR InstName S4
SYMBOL res 528 1872 R0
SYMATTR InstName R19
SYMATTR Value 26.7k
SYMBOL res -320 2112 R0
SYMATTR InstName R20
SYMATTR Value 16.2k
SYMBOL res 672 1840 R0
SYMATTR InstName R22
SYMATTR Value 1.1k
SYMBOL cap 672 1968 R0
SYMATTR InstName C8
SYMATTR Value 12n
SYMBOL ind 192 1728 R270
WINDOW 0 32 56 VTop 2
WINDOW 3 5 56 VBottom 2
SYMATTR InstName L2
SYMATTR Value {L}
SYMATTR SpiceLine Rser=20m
SYMBOL AVG_PWM_VM -48 1776 R0
SYMATTR InstName X2
SYMATTR SpiceLine L=75u Fsw=100k Tsw=1/Fsw lim=10m Kpwm=0.5 Ref=1.25
SYMBOL cap -432 1904 M180
WINDOW 0 24 56 Left 2
WINDOW 3 24 8 Left 2
SYMATTR InstName C5
SYMATTR Value 6.8n
SYMBOL res -432 2032 M180
WINDOW 0 36 76 Left 2
WINDOW 3 36 40 Left 2
SYMATTR InstName R5
SYMATTR Value 10k
SYMBOL cap -544 1952 M180
WINDOW 0 24 56 Left 2
WINDOW 3 24 8 Left 2
SYMATTR InstName C10
SYMATTR Value 33p
SYMBOL cap 336 912 R0
SYMATTR InstName C1
SYMATTR Value 100µ
SYMBOL res 336 1008 R0
SYMATTR InstName R1
SYMATTR Value 70m
SYMBOL res 832 944 R0
SYMATTR InstName R2
SYMATTR Value {Rload}
SYMBOL res 1056 880 R0
SYMATTR InstName R3
SYMATTR Value 10
SYMBOL sw 1072 1088 R180
SYMATTR InstName S2
SYMBOL res 528 1040 R0
SYMATTR InstName R4
SYMATTR Value 26.7k
SYMBOL res 672 1008 R0
SYMATTR InstName R6
SYMATTR Value 1.1k
SYMBOL cap 672 1136 R0
SYMATTR InstName C2
SYMATTR Value 12n
SYMBOL ind 192 896 R270
WINDOW 0 32 56 VTop 2
WINDOW 3 5 56 VBottom 2
SYMATTR InstName L1
SYMATTR Value {L}
SYMATTR SpiceLine Rser=20m
SYMBOL PWM_VM -448 944 R0
SYMATTR InstName X1
SYMATTR SpiceLine Fsw=100k Tsw=1/Fsw lim=10m Kpwm=0.5 Ref=1.25
SYMBOL res -720 1280 R0
SYMATTR InstName R9
SYMATTR Value 16.2k
SYMBOL cap -832 1072 M180
WINDOW 0 24 56 Left 2
WINDOW 3 24 8 Left 2
SYMATTR InstName C3
SYMATTR Value 6.8n
SYMBOL res -832 1200 M180
WINDOW 0 36 76 Left 2
WINDOW 3 36 40 Left 2
SYMATTR InstName R10
SYMATTR Value 10k
SYMBOL cap -944 1120 M180
WINDOW 0 24 56 Left 2
WINDOW 3 24 8 Left 2
SYMATTR InstName C6
SYMATTR Value 33p
SYMBOL voltage -816 672 R0
WINDOW 123 0 0 Left 0
WINDOW 39 0 0 Left 0
SYMATTR InstName V1
SYMATTR Value 12
SYMBOL voltage -816 1808 R0
WINDOW 123 0 0 Left 0
WINDOW 39 0 0 Left 0
SYMATTR InstName V2
SYMATTR Value 12
SYMBOL voltage 1232 1008 R0
WINDOW 123 0 0 Left 0
WINDOW 39 0 0 Left 0
SYMATTR InstName V3
SYMATTR Value PULSE(0 5 8m 1n 1n 3.5m 7m 1)
SYMBOL voltage 1232 1840 R0
WINDOW 123 0 0 Left 0
WINDOW 39 0 0 Left 0
SYMATTR InstName V4
SYMATTR Value PULSE(0 5 8m 1n 1n 3.5m 7m 1)
TEXT -832 2480 Left 2 !.model SW SW(Ron=1u Roff=10Meg Vt={Vcc_comp/2} Vh=-.001)
TEXT -832 2512 Left 2 !.param L=75u Fsw=100k Tsw=1/Fsw lim=10m kpwm=0.5 Vcc_comp=1/Kpwm ref=1.25
TEXT -832 2576 Left 2 !.tran 0 15m 7m startup uic
TEXT -832 2544 Left 2 !.param Rload=100
TEXT -832 2448 Left 2 !.model clamp D Ron=1m
